/*--------------------------------*- C++ -*----------------------------------*\
| =========                 |                                                 |
| \\      /  F ield         | OpenFOAM: The Open Source CFD Toolbox           |
|  \\    /   O peration     | Version:  2.2.3                                 |
|   \\  /    A nd           | Web:      www.OpenFOAM.org                      |
|    \\/     M anipulation  |                                                 |
\*---------------------------------------------------------------------------*/
FoamFile
{
    version     2.0;
    format      ascii;
    class       dictionary;
    object      blockMeshDict;
}

// * * * * * * * * * * * * * * * * * * * * * * * * * * * * * * * * * * * * * //

convertToMeters 1;

vertices
(
    ( 2.16 -1.83 -1.22) // 0
    ( 2.16  1.83 -1.22) // 1
    (-1.50  1.83 -1.22) // 2
    (-1.50 -1.83 -1.22) // 3
    ( 2.16 -1.83  1.22) // 4
    ( 2.16  1.83  1.22) // 5
    (-1.50  1.83  1.22) // 6
    (-1.50 -1.83  1.22) // 7 
);
blocks
(
    hex (0 1 2 3 4 5 6 7)
    (66 66 44) // Last dimension should be divisible by 4, first 2 should be 1.5 times last
    simpleGrading (1 1 1)
);

patches
(
    patch inlet
    (
        (2 6 7 3) // (0 4 5 1)
    )
    patch outlet
    (
        (0 4 5 1) // (2 6 7 3)
    )
    wall walls
    (
        (1 5 6 2)
        (4 0 3 7)
    )
    wall top
    (
        (4 7 6 5)
    )
    wall bottom
    (
        (0 1 2 3)
    )
);

edges
(
);

mergePatchPairs
(
);

// ************************************************************************* //
