/*--------------------------------*- C++ -*----------------------------------*\
| =========                 |                                                 |
| \\      /  F ield         | OpenFOAM: The Open Source CFD Toolbox           |
|  \\    /   O peration     | Version:  2.3.x                                 |
|   \\  /    A nd           | Web:      www.OpenFOAM.org                      |
|    \\/     M anipulation  |                                                 |
\*---------------------------------------------------------------------------*/
FoamFile
{
    version     2.0;
    format      ascii;
    class       dictionary;
    object      dynamicMeshDict;
}


dynamicFvMesh   solidBodyMotionFvMesh;

motionSolverLibs ("libfvMotionSolvers.so");

solidBodyMotionFvMeshCoeffs
{
    cellZone        AMIsurface;
    solidBodyMotionFunction  rotatingMotion;
    rotatingMotionCoeffs
    {
        origin		(0 0 0);
        axis		(0 0 1);
        omega		table
        (
            (0.0 0.806268453029)
            (0.0555555555556 0.753286020712)
            (0.111111111111 0.707140905359)
            (0.166666666667 0.669111951323)
            (0.222222222222 0.640253075426)
            (0.277777777778 0.621364059188)
            (0.333333333333 0.612968384058)
            (0.388888888889 0.615298723887)
            (0.444444444444 0.628290496718)
            (0.5 0.651583654575)
        );
    }
}